                                  MODFLOW-2005     
      U.S. GEOLOGICAL SURVEY MODULAR FINITE-DIFFERENCE GROUND-WATER FLOW MODEL
                            VERSION 1.11.00 8/8/2013

 LIST FILE: mnm.lst
                         UNIT   11

 OPENING mnm.cbc
 FILE TYPE:DATA(BINARY)   UNIT    9   STATUS:REPLACE
 FORMAT:BINARY                 ACCESS:SEQUENTIAL          

 OPENING mnm.dis
 FILE TYPE:DIS   UNIT   12   STATUS:OLD    
 FORMAT:FORMATTED              ACCESS:SEQUENTIAL          

 OPENING mnm.bas
 FILE TYPE:BAS6   UNIT   13   STATUS:OLD    
 FORMAT:FORMATTED              ACCESS:SEQUENTIAL          

 OPENING mnm.oc
 FILE TYPE:OC   UNIT   39   STATUS:OLD    
 FORMAT:FORMATTED              ACCESS:SEQUENTIAL          

 OPENING mnm.fhd
 FILE TYPE:DATA   UNIT   37   STATUS:REPLACE
 FORMAT:FORMATTED              ACCESS:SEQUENTIAL          

 OPENING mnm.fdn
 FILE TYPE:DATA   UNIT   38   STATUS:REPLACE
 FORMAT:FORMATTED              ACCESS:SEQUENTIAL          

 OPENING mnm.pcg
 FILE TYPE:PCG   UNIT   18   STATUS:OLD    
 FORMAT:FORMATTED              ACCESS:SEQUENTIAL          

 OPENING mnm.lpf
 FILE TYPE:LPF   UNIT   14   STATUS:OLD    
 FORMAT:FORMATTED              ACCESS:SEQUENTIAL          

 OPENING mnm.chd
 FILE TYPE:CHD   UNIT   17   STATUS:OLD    
 FORMAT:FORMATTED              ACCESS:SEQUENTIAL          

 OPENING mnm.riv
 FILE TYPE:RIV   UNIT   21   STATUS:OLD    
 FORMAT:FORMATTED              ACCESS:SEQUENTIAL          

 OPENING mnm.rch
 FILE TYPE:RCH   UNIT   24   STATUS:OLD    
 FORMAT:FORMATTED              ACCESS:SEQUENTIAL          

 OPENING mnm.ob_hob
 FILE TYPE:HOB   UNIT   41   STATUS:OLD    
 FORMAT:FORMATTED              ACCESS:SEQUENTIAL          

 OPENING mnm.hob_out
 FILE TYPE:DATA   UNIT   42   STATUS:REPLACE
 FORMAT:FORMATTED              ACCESS:SEQUENTIAL          

 BAS -- BASIC PACKAGE, VERSION 7, 5/2/2005 INPUT READ FROM UNIT   13
 
 MODFLOW was compiled using mixed precision
 Precision of REAL variables:           6
 Precision of DOUBLE PRECISION variables:          15

 DISCRETIZATION INPUT DATA READ FROM UNIT   12
 # Discretization File created on 02.08.2016 by ModelMuse version 3.7.1.0.
 # Basic Package file created on 27.07.2016 by ModelMuse version 3.7.1.0.
 # Upper left corner: (0, 0)
 # Lower left corner: (0, -4000)
 # Upper right corner: (6000, 0)
 # Lower right corner: (6000, -4000)
 # Grid angle (in degrees counterclockwise): 0
    1 LAYERS        40 ROWS        60 COLUMNS
    1 STRESS PERIOD(S) IN SIMULATION
 MODEL TIME UNIT IS DAYS
 MODEL LENGTH UNIT IS METERS
  Confining bed flag for each layer:
   0

                     DELR =  100.0000    

                     DELC =  100.0000    

 TOP ELEVATION OF LAYER 1 =   460.000    

   MODEL LAYER BOTTOM EL. =   390.000     FOR LAYER   1


 STRESS PERIOD     LENGTH       TIME STEPS     MULTIPLIER FOR DELT    SS FLAG
 ----------------------------------------------------------------------------
        1         7300.000          1                    1.000         SS

 STEADY-STATE SIMULATION



 
 # Basic Package file created on 27.07.2016 by ModelMuse version 3.7.1.0.        
 # Basic Package file created on 02.08.2016 by ModelMuse version 3.7.1.0.        
 THE FREE FORMAT OPTION HAS BEEN SELECTED
 THE PRINTTIME OPTION HAS BEEN SELECTED
 CALCULATE FLOW BETWEEN ADJACENT CONSTANT-HEAD CELLS



                     BOUNDARY ARRAY FOR LAYER   1
 READING ON UNIT   13 WITH FORMAT: (FREE)              

          1     2     3     4     5     6     7     8     9    10    11    12    13    14    15    16    17    18    19    20
         21    22    23    24    25    26    27    28    29    30    31    32    33    34    35    36    37    38    39    40
         41    42    43    44    45    46    47    48    49    50    51    52    53    54    55    56    57    58    59    60
 ............................................................................................................................
   1      0     0     0     0     0     0     0     0     0     0     0     0     0     0     0     0     0     0     0     0
          0     0     0     0     0     0     0     0     0     0     0     0     0     0     0     0     0     0     0     0
          0     0     0     0     0     0     0     0     0     0     0     0     0     0     0     0     0     0     0     0
   2      0     0     0     0     0     0     0     0     0     0     0     0     0     0     0     0     1     1     1     1
          1     1     1     1     1     0     0     0     1     1     1     1     0     0     1     1     1     1     1     1
          1     0     0     0     0     0     0     0     0     0     0     0     0     0     0     0     0     0     0     0
   3      0     0     0     0     0     0     0     0     0     0     0     0     0     1     1     1     1     1     1     1
          1     1     1     1     1     1     1     1     1     1     1     1     1     1     1     1     1     1     1     1
          1     1     1     1     1     1     1     1     0     0     0     0     0     0     0     0     0     0     0     0
   4      0     0     0     0     0     0     0     0     0     0     0     0     1     1     1     1     1     1     1     1
          1     1     1     1     1     1     1     1     1     1     1     1     1     1     1     1     1     1     1     1
          1     1     1     1     1     1     1     1     1     0     0     0     0     0     0     0     0     0     0     0
   5      0     0     0     0     0     0     0     0     0     1     1     1     1     1     1     1     1     1     1     1
          1     1     1     1     1     1     1     1     1     1     1     1     1     1     1     1     1     1     1     1
          1     1     1     1     1     1     1     1     1     1     0     0     0     0     0     0     0     0     0     0
   6      0     0     0     0     0     0     0     0     1     1     1     1     1     1     1     1     1     1     1     1
          1     1     1     1     1     1     1     1     1     1     1     1     1     1     1     1     1     1     1     1
          1     1     1     1     1     1     1     1     1     1     1     1     0     0     0     0     0     0     0     0
   7      0     0     0     0     0     0     0     1     1     1     1     1     1     1     1     1     1     1     1     1
          1     1     1     1     1     1     1     1     1     1     1     1     1     1     1     1     1     1     1     1
          1     1     1     1     1     1     1     1     1     1     1     1     1     1     1     0     0     0     0     0
   8      0     0     0     0     0     1     1     1     1     1     1     1     1     1     1     1     1     1     1     1
          1     1     1     1     1     1     1     1     1     1     1     1     1     1     1     1     1     1     1     1
          1     1     1     1     1     1     1     1     1     1     1     1     1     1     1     1     1     0     0     0
   9      0     0     0     0     1     1     1     1     1     1     1     1     1     1     1     1     1     1     1     1
          1     1     1     1     1     1     1     1     1     1     1     1     1     1     1     1     1     1     1     1
          1     1     1     1     1     1     1     1     1     1     1     1     1     1     1     1     1     0     0     0
  10      0     0     1     1     1     1     1     1     1     1     1     1     1     1     1     1     1     1     1     1
          1     1     1     1     1     1     1     1     1     1     1     1     1     1     1     1     1     1     1     1
          1     1     0     0     0     0     0     0     1     1     1     1     1     1     1     1     1     1     0     0
  11      1     1     1     1     1     1     1     1     1     1     1     1     1     1     1     1     1     1     1     1
          1     1     1     1     1     1     1     1     1     1     1     1     1     1     1     1     1     1     1     1
          1     0     0     0     0     0     0     0     1     1     1     1     1     1     1     1     1     1     0     0
  12      1     1     1     1     1     1     1     1     1     1     1     1     1     1     1     1     1     1     1     1
          1     1     1     1     1     1     1     1     1     1     1     1     1     1     1     1     1     1     1     1
          1     1     0     0     0     0     0     0     1     1     1     1     1     1     1     1     1     1     0     0
  13      1     1     1     1     1     1     1     1     1     1     1     1     1     1     1     1     1     1     1     1
          1     1     1     1     1     1     1     1     1     1     1     1     1     1     1     1     1     1     1     1
          1     1     1     0     0     0     0     0     1     1     1     1     1     1     1     1     1     1     1     1
  14      1     1     1     1     1     1     1     1     1     1     1     1     1     1     1     1     1     1     1     1
          1     1     1     1     1     1     1     1     1     1     1     1     1     1     1     1     1     1     1     1
          1     1     1     1     0     0     0     0     0     1     1     1     1     1     1     1     1     1     1     1
  15      1     1     1     1     1     1     1     1     1     1     1     1     1     1     1     1     1     1     1     1
          1     1     1     1     1     1     1     1     1     1     1     1     1     1     1     1     1     1     1     1
          1     1     1     1     1     0     0     0     0     1     1     1     1     1     1     1     1     1     1     1
  16      1     1     1     1     1     1     1     1     1     1     1     1     1     1     1     1     1     1     1     1
          1     1     1     1     1     1     1     1     1     1     1     1     1     1     1     1     1     1     1     1
          1     1     1     1     1     1     1     0     1     1     1     1     1     1     1     1     1     1     1     1
  17      1     1     1     1     1     1     1     1     1     1     1     1     1     1     1     1     1     1     1     1
          1     1     1     1     1     1     1     1     1     1     1     1     1     1     1     1     1     1     1     1
          1     1     1     1     1     1     1     1     1     1     1     1     1     1     1     1     1     1     1     1
  18      1     1     1     1     1     1     1     1     1     1     1     1     1     1     1     1     1     1     1     1
          1     1     1     1     1     1     1     1     1     1     1     1     1     1     1     1     1     1     1     1
          1     1     1     1     1     1     1     1     1     1     1     1     1     1     1     1     1     1     1     1
  19      1     1     1     1     1     1     1     1     1     1     1     1     1     1     1     1     1     1     1     1
          1     1     1     1     1     1     1     1     1     1     1     1     1     1     1     1     1     1     1     1
          1     1     1     1     1     1     1     1     1     1     1     1     1     1     1     1     1     1     1     1
  20      1     1     1     1     1     1     1     1     1     1     1     1     1     1     1     1     1     1     1     1
          1     1     1     1     1     1     1     1     1     1     1     1     1     1     1     1     1     1     1     1
          1     1     1     1     1     1     1     1     1     1     1     1     1     1     1     1     1     1     1     1
  21      1     1     1     1     1     1     1     1     1     1     1     1     1     1     1     1     1     1     1     1
          1     1     1     1     1     1     1     1     1     1     1     1     1     1     1     1     1     1     1     1
          1     1     1     1     1     1     1     1     1     1     1     1     1     1     1     1     1     1     1     1
  22      1     1     1     1     1     1     1     1     1     1     1     1     1     1     1     1     1     1     1     1
          1     1     1     1     1     1     1     1     1     1     1     1     1     1     1     1     1     1     1     1
          1     1     1     1     1     1     1     1     1     1     1     1     1     1     1     1     1     1     1     1
  23      1     1     1     1     1     1     1     1     1     1     1     1     1     1     1     1     1     1     1     1
          1     1     1     1     1     1     1     1     1     1     1     1     1     1     1     1     1     1     1     1
          1     1     1     1     1     1     1     1     1     1     1     1     1     1     1     1     1     1     1     1
  24      1     1     1     1     1     1     1     1     1     1     1     1     1     1     1     1     1     1     1     1
          1     1     1     1     1     1     1     1     1     1     1     1     1     1     1     1     1     1     1     1
          1     1     1     1     1     1     1     1     1     1     1     1     1     1     1     1     1     1     1     1
  25      1     1     1     1     1     1     1     1     1     1     1     1     1     1     1     1     1     1     1     1
          1     1     1     1     1     1     1     1     1     1     1     1     1     1     1     1     1     1     1     1
          1     1     1     1     1     1     1     1     1     1     1     1     1     1     1     1     1     1     1     1
  26      1     1     1     1     1     1     1     1     1     1     1     1     1     1     1     1     1     1     1     1
          1     1     1     1     1     1     1     1     1     1     1     1     1     1     1     1     1     1     1     1
          1     1     1     1     1     1     1     1     1     1     1     1     1     1     1     1     1     1     1     1
  27      1     1     1     1     1     1     1     1     1     1     1     1     1     1     1     1     1     1     1     1
          1     1     1     1     1     1     1     1     1     1     1     1     1     1     1     1     1     1     1     1
          1     1     1     1     1     1     1     1     1     1     1     1     1     1     1     1     1     1     1     1
  28      1     1     1     1     1     1     1     1     1     1     1     1     1     1     1     1     1     1     1     1
          1     1     1     1     1     1     1     1     1     1     1     1     1     1     1     1     1     1     1     1
          1     1     1     1     1     1     1     1     1     1     1     1     1     1     1     1     1     1     1     1
  29      1     1     1     1     1     1     1     1     1     1     1     1     1     1     1     1     1     1     1     1
          1     1     1     1     1     1     1     1     1     1     1     1     1     1     1     1     1     1     1     1
          1     1     1     1     1     1     1     1     1     1     1     1     1     1     1     1     1     1     1     1
  30      1     1     1     1     1     1     1     1     1     1     1     1     1     1     1     1     1     1     1     1
          1     1     1     1     1     1     1     1     1     1     1     1     1     1     1     1     1     1     1     1
          1     1     1     1     1     1     1     1     1     1     1     1     1     1     1     1     1     1     1     1
  31      1     1     1     1     1     1     1     1     1     1     1     1     1     1     1     1     1     1     1     1
          1     1     1     1     1     1     1     1     1     1     1     1     1     1     1     1     1     1     1     1
          1     1     1     1     1     1     1     1     1     1     1     1     1     1     1     1     1     1     1     1
  32      1     1     1     1     1     1     1     1     1     1     1     1     1     1     1     1     1     1     1     1
          1     1     1     1     1     1     1     1     1     1     1     1     1     1     1     1     1     1     1     1
          1     1     1     1     1     1     1     1     1     1     1     1     1     1     1     1     1     1     1     1
  33      1     1     1     1     1     1     1     1     1     1     1     1     1     1     1     1     1     1     1     1
          1     1     1     1     1     1     1     1     1     1     1     1     1     1     1     1     1     1     1     1
          1     1     1     1     1     1     1     1     1     1     1     1     1     1     1     1     1     1     1     1
  34      1     1     1     1     1     1     1     1     1     1     1     1     1     1     1     1     1     1     1     1
          1     1     1     1     1     1     1     1     1     1     1     1     1     1     0     0     0     0     0     1
          1     1     1     1     1     1     1     1     1     1     1     1     1     1     1     1     1     1     1     1
  35      1     1     1     1     1     1     1     1     1     1     1     1     1     1     1     1     1     1     1     1
          1     1     1     1     1     1     1     1     1     1     1     1     0     0     0     0     0     0     0     0
          0     0     1     1     1     1     1     1     1     1     1     1     1     1     1     1     1     1     1     1
  36      1     1     1     1     1     1     1     1     1     1     1     1     1     1     1     1     1     1     1     1
          1     1     1     1     1     1     1     1     1     1     1     0     0     0     0     0     0     0     0     0
          0     0     0     1     1     1     1     1     1     1     1     1     1     1     1     1     1     1     1     1
  37      1     1     1     1     1     1     1     1     1     1     1     1     1     1     1     1     1     1     1     1
          1     1     1     1     1     1     1     1     1     1     0     0     0     0     0     0     0     0     0     0
          0     0     0     1     1     1     1     1     1     1     1     1     1     1     1     1     1     1     1     1
  38      1     1     1     1     1     1     1     1     1     1     1     1     1     1     1     1     1     0     1     1
          1     1     1     1     1     1     1     1     0     0     0     0     0     0     0     0     0     0     0     0
          0     0     0     0     0     0     0     1     1     1     1     1     1     1     1     1     1     1     1     1
  39      1     1     1     1     1     1     1     1     1     1     1     1     1     1     0     0     0     0     0     0
          0     1     1     1     0     0     0     0     0     0     0     0     0     0     0     0     0     0     0     0
          0     0     0     0     0     0     0     0     0     0     0     0     1     1     1     1     1     1     1     1
  40      1     1     1     1     1     1     1     1     1     1     1     0     0     0     0     0     0     0     0     0
          0     0     0     0     0     0     0     0     0     0     0     0     0     0     0     0     0     0     0     0
          0     0     0     0     0     0     0     0     0     0     0     0     0     0     1     1     1     1     1     1

 AQUIFER HEAD WILL BE SET TO -2.00000E+20 AT ALL NO-FLOW NODES (IBOUND=0).

             INITIAL HEAD =   0.00000     FOR LAYER   1
 # Output Control file created on 02.08.2016 by ModelMuse version 3.7.1.0.

 OUTPUT CONTROL IS SPECIFIED ONLY AT TIME STEPS FOR WHICH OUTPUT IS DESIRED
 HEADS WILL BE SAVED WITH FORMAT: (10(1X1PE13.5))     
 SAVED HEADS WILL BE LABELED
 DRAWDOWN WILL BE SAVED WITH FORMAT: (10(1X1PE13.5))     
 SAVED DRAWDOWN WILL BE LABELED
 COMPACT CELL-BY-CELL BUDGET FILES WILL BE WRITTEN
 AUXILIARY DATA WILL BE SAVED IN CELL-BY-CELL BUDGET FILES
 HEAD PRINT FORMAT CODE IS   0    DRAWDOWN PRINT FORMAT CODE IS   0
 HEADS WILL BE SAVED ON UNIT   37    DRAWDOWNS WILL BE SAVED ON UNIT   38

 LPF -- LAYER-PROPERTY FLOW PACKAGE, VERSION 7, 5/2/2005
         INPUT READ FROM UNIT   14
 # LPF: Layer Property Flow package file created on 02.08.2016 by ModelMuse version 3.7.1.0.
 # LPF: Layer Property Flow package file created on 27.07.2016 by ModelMuse version 3.7.1.0.
 CELL-BY-CELL FLOWS WILL BE SAVED ON UNIT    9
 HEAD AT CELLS THAT CONVERT TO DRY= -1.00000E+20
 No named parameters

   LAYER FLAGS:
 LAYER       LAYTYP        LAYAVG         CHANI        LAYVKA        LAYWET
 ---------------------------------------------------------------------------
    1             0             0    -1.000E+00             0             0

   INTERPRETATION OF LAYER FLAGS:
                        INTERBLOCK     HORIZONTAL    DATA IN
         LAYER TYPE   TRANSMISSIVITY   ANISOTROPY   ARRAY VKA   WETTABILITY
 LAYER      (LAYTYP)      (LAYAVG)       (CHANI)      (LAYVKA)      (LAYWET)
 ---------------------------------------------------------------------------
    1      CONFINED      HARMONIC      VARIABLE    VERTICAL K  NON-WETTABLE

 WETTING CAPABILITY IS NOT ACTIVE IN ANY LAYER

    HYD. COND. ALONG ROWS =   43.2000     FOR LAYER   1

   HORIZ. ANI. (COL./ROW) =  1.000000     FOR LAYER   1

      VERTICAL HYD. COND. =   4.32000     FOR LAYER   1

 RIV -- RIVER PACKAGE, VERSION 7, 5/2/2005 INPUT READ FROM UNIT   21
 # RIV: River package file created on 02.08.2016 by ModelMuse version 3.7.1.0.
 # RIV: River package file created on 27.07.2016 by ModelMuse version 3.7.1.0.
 No named parameters
 MAXIMUM OF     85 ACTIVE RIVER REACHES AT ONE TIME
 CELL-BY-CELL FLOWS WILL BE SAVED ON UNIT    9
 AUXILIARY RIVER VARIABLE: IFACE           


     0 River parameters

 RCH -- RECHARGE PACKAGE, VERSION 7, 5/2/2005 INPUT READ FROM UNIT   24
 # RCH: Recharge package file created on 02.08.2016 by ModelMuse version 3.7.1.0.
 # RCH: Recharge package file created on 27.07.2016 by ModelMuse version 3.7.1.0.
 No named parameters
 OPTION 1 -- RECHARGE TO TOP LAYER
 CELL-BY-CELL FLOWS WILL BE SAVED ON UNIT    9


     0 Recharge parameters

 CHD -- TIME-VARIANT SPECIFIED-HEAD OPTION, VERSION 7, 5/2/2005
 INPUT READ FROM UNIT   17
 # CHD: Time-Variant Specified-Head package file created on 02.08.2016 by ModelMuse version 3.7.1.0.
 # CHD: Time-Variant Specified-Head package file created on 27.07.2016 by ModelMuse version 3.7.1.0.
 No named parameters
 MAXIMUM OF     58 TIME-VARIANT SPECIFIED-HEAD CELLS AT ONE TIME
 AUXILIARY CHD VARIABLE: IFACE           


     0 TIME-VARIANT SPECIFIED-HEAD PARAMETERS

 PCG -- CONJUGATE-GRADIENT SOLUTION PACKAGE, VERSION 7, 5/2/2005
 # PCG: Preconditioned Conjugate Gradient package file created on 02.08.2016 by ModelMuse version 3.7.1.0.
 # PCG: Preconditioned Conjugate Gradient package file created on 27.07.2016 by ModelMuse version 3.7.1.0.
 MAXIMUM OF     20 CALLS OF SOLUTION ROUTINE
 MAXIMUM OF     30 INTERNAL ITERATIONS PER CALL TO SOLUTION ROUTINE
 MATRIX PRECONDITIONING TYPE :    1



                                    SOLUTION BY THE CONJUGATE-GRADIENT METHOD
                                   -------------------------------------------
                    MAXIMUM NUMBER OF CALLS TO PCG ROUTINE =       20
                        MAXIMUM ITERATIONS PER CALL TO PCG =       30
                               MATRIX PRECONDITIONING TYPE =        1
        RELAXATION FACTOR (ONLY USED WITH PRECOND. TYPE 1) =    0.10000E+01
 PARAMETER OF POLYNOMIAL PRECOND. = 2 (2) OR IS CALCULATED :        1
                         HEAD CHANGE CRITERION FOR CLOSURE =    0.10000E-02
                     RESIDUAL CHANGE CRITERION FOR CLOSURE =    0.10000E-02
            PCG HEAD AND RESIDUAL CHANGE PRINTOUT INTERVAL =        1
     PRINTING FROM SOLVER IS LIMITED(1) OR SUPPRESSED (>1) =        0
                            STEADY-STATE DAMPING PARAMETER =    0.10000E+01
                               TRANSIENT DAMPING PARAMETER =    0.10000E+01

 OBS2BAS7 -- HEAD OBSERVATIONS, VERSION 2.0, 2/28/2006
 INPUT READ FROM UNIT  41
 # HOB: Head Observation package file created on 02.08.2016 by ModelMuse version 3.7.1.0.
 # HOB: Head Observation package file created on 27.07.2016 by ModelMuse version 3.7.1.0.

 NUMBER OF HEADS....................................:    7
   NUMBER OF MULTILAYER HEADS.......................:    0
   MAXIMUM NUMBER OF LAYERS FOR MULTILAYER HEADS....:    2
 HEAD OBSERVATIONS WILL BE SAVED ON UNIT............:   42
 SIMULATED EQUIVALENT HEAD AT DRY CELLS WILL BE:  -1.000000E+06

 OBSERVED HEAD DATA -- TIME OFFSETS ARE MULTIPLIED BY:  1.00000    

                    REFER.
       OBSERVATION  STRESS    TIME
  OBS#    NAME      PERIOD   OFFSET    OBSERVATION
     1 GWM-2            1    7300.       452.2    
     2 GWM-5            1    7300.       448.5    
     3 GWM-3            1    7300.       444.3    
     4 GWM-4            1    7300.       440.0    
     5 GWM-6            1    7300.       440.1    
     6 GWM-7            1    7300.       445.5    
     7 GWM-8            1    7300.       446.4    

                                                     HEAD CHANGE
                                                      REFERENCE
        OBSERVATION                   ROW     COL    OBSERVATION
  OBS#     NAME       LAY  ROW  COL  OFFSET  OFFSET   (IF > 0)
     1  GWM-2           1   17    1   0.000   0.100        0
     2  GWM-5           1   36   14  -0.100  -0.200        0
     3  GWM-3           1   30   34  -0.400   0.300        0
     4  GWM-4           1   20   59  -0.100  -0.500        0
     5  GWM-6           1   28   60   0.200   0.000        0
     6  GWM-7           1   12   25   0.500   0.000        0
     7  GWM-8           1    6   17   0.000   0.200        0
1
                            STRESS PERIOD NO.    1, LENGTH =   7300.000    
                            -----------------------------------------------

                              NUMBER OF TIME STEPS =     1

                               MULTIPLIER FOR DELT =     1.000

                            INITIAL TIME STEP SIZE =   7300.000    

 REACH NO.  LAYER   ROW   COL     STAGE      CONDUCTANCE     BOTTOM EL.         IFACE           
 -----------------------------------------------------------------------------------------------
      1      1     25      1       449.9          0.3692E+05       448.9           0.000    
      2      1     25      2       449.8          0.5050E+05       448.8           0.000    
      3      1     25      3       449.6          0.5291E+05       448.6           0.000    
      4      1     24      4       449.5          0.3355E+05       448.5           0.000    
      5      1     25      4       449.5          0.2018E+05       448.5           0.000    
      6      1     24      5       449.3          0.5373E+05       448.3           0.000    
      7      1     23      6       449.1           4385.           448.1           0.000    
      8      1     24      6       449.2          0.4934E+05       448.2           0.000    
      9      1     23      7       448.9          0.5520E+05       447.9           0.000    
     10      1     22      8       448.8          0.2186E+05       447.8           0.000    
     11      1     23      8       448.9          0.4175E+05       447.9           0.000    
     12      1     21      9       448.6           4595.           447.6           0.000    
     13      1     22      9       448.7          0.5902E+05       447.7           0.000    
     14      1     21     10       448.5          0.6361E+05       447.5           0.000    
     15      1     20     11       448.2          0.5094E+05       447.2           0.000    
     16      1     21     11       448.3          0.1267E+05       447.3           0.000    
     17      1     19     12       448.0          0.3657E+05       447.0           0.000    
     18      1     20     12       448.1          0.2981E+05       447.1           0.000    
     19      1     19     13       447.8          0.6059E+05       446.8           0.000    
     20      1     19     14       447.7          0.4851E+05       446.7           0.000    
     21      1     20     14       447.6           8111.           446.6           0.000    
     22      1     20     15       447.5          0.5662E+05       446.5           0.000    
     23      1     20     16       447.4          0.4185E+05       446.4           0.000    
     24      1     21     16       447.3          0.1477E+05       446.3           0.000    
     25      1     21     17       447.2          0.5662E+05       446.2           0.000    
     26      1     21     18       447.0          0.5931E+05       446.0           0.000    
     27      1     20     19       446.8          0.2981E+05       445.8           0.000    
     28      1     21     19       446.9          0.3060E+05       445.9           0.000    
     29      1     19     20       446.6           1116.           445.6           0.000    
     30      1     20     20       446.7          0.5929E+05       445.7           0.000    
     31      1     19     21       446.5          0.6041E+05       445.5           0.000    
     32      1     18     22       446.3          0.3283E+05       445.3           0.000    
     33      1     19     22       446.4          0.2758E+05       445.4           0.000    
     34      1     17     23       446.0           4136.           445.0           0.000    
     35      1     18     23       446.1          0.5627E+05       445.1           0.000    
     36      1     17     24       445.9          0.5585E+05       444.9           0.000    
     37      1     17     25       445.8          0.5295E+05       444.8           0.000    
     38      1     16     26       445.6          0.3343E+05       444.6           0.000    
     39      1     17     26       445.7          0.1952E+05       444.7           0.000    
     40      1     16     27       445.4          0.5251E+05       444.4           0.000    
     41      1     16     28       445.3          0.5077E+05       444.3           0.000    
     42      1     16     29       445.2          0.5077E+05       444.2           0.000    
     43      1     16     30       445.0          0.2490E+05       444.0           0.000    
     44      1     17     30       445.0          0.3253E+05       444.0           0.000    
     45      1     17     31       444.8          0.5063E+05       443.8           0.000    
     46      1     18     31       444.7          0.1194E+05       443.7           0.000    
     47      1     18     32       444.6          0.6257E+05       443.6           0.000    
     48      1     18     33       444.5           8652.           443.5           0.000    
     49      1     19     33       444.4          0.5392E+05       443.4           0.000    
     50      1     19     34       444.3          0.2925E+05       443.3           0.000    
     51      1     20     34       444.2          0.3333E+05       443.2           0.000    
     52      1     20     35       444.1          0.4984E+05       443.1           0.000    
     53      1     21     35       444.0          0.1417E+05       443.0           0.000    
     54      1     21     36       443.9          0.5521E+05       442.9           0.000    
     55      1     22     36       443.8          0.1775E+05       442.8           0.000    
     56      1     22     37       443.6          0.5791E+05       442.6           0.000    
     57      1     23     37       443.6           7268.           442.6           0.000    
     58      1     23     38       443.5          0.5690E+05       442.5           0.000    
     59      1     23     39       443.3          0.4058E+05       442.3           0.000    
     60      1     24     39       443.2          0.1632E+05       442.2           0.000    
     61      1     24     40       443.1          0.5690E+05       442.1           0.000    
     62      1     24     41       443.0          0.3153E+05       442.0           0.000    
     63      1     25     41       442.9          0.2340E+05       441.9           0.000    
     64      1     24     42       442.8          0.2783E+05       441.8           0.000    
     65      1     25     42       442.8          0.2245E+05       441.8           0.000    
     66      1     24     43       442.7          0.5029E+05       441.7           0.000    
     67      1     24     44       442.5          0.5029E+05       441.5           0.000    
     68      1     24     45       442.4          0.5029E+05       441.4           0.000    
     69      1     24     46       442.2          0.5063E+05       441.2           0.000    
     70      1     24     47       442.1          0.5097E+05       441.1           0.000    
     71      1     24     48       441.9          0.5097E+05       440.9           0.000    
     72      1     23     49       441.7          0.3330E+05       440.7           0.000    
     73      1     24     49       441.8          0.1768E+05       440.8           0.000    
     74      1     23     50       441.6          0.5097E+05       440.6           0.000    
     75      1     23     51       441.4          0.5097E+05       440.4           0.000    
     76      1     23     52       441.3          0.5097E+05       440.3           0.000    
     77      1     23     53       441.1          0.5157E+05       440.1           0.000    
     78      1     22     54       441.0          0.4701E+05       440.0           0.000    
     79      1     23     54       441.1           4575.           440.1           0.000    
     80      1     22     55       440.8          0.5158E+05       439.8           0.000    
     81      1     22     56       440.6          0.5194E+05       439.6           0.000    
     82      1     22     57       440.5          0.5169E+05       439.5           0.000    
     83      1     22     58       440.4          0.5053E+05       439.4           0.000    
     84      1     22     59       440.2          0.5053E+05       439.2           0.000    
     85      1     22     60       440.0          0.5053E+05       439.0           0.000    

     85 RIVER REACHES

                 RECHARGE =  3.287671E-04

 CHD NO.   LAYER   ROW   COL    START HEAD        END HEAD         IFACE           
 ----------------------------------------------------------------------------------
      1      1     11      1       450.0           450.0           0.000    
      2      1     12      1       450.0           450.0           0.000    
      3      1     13      1       450.0           450.0           0.000    
      4      1     14      1       450.0           450.0           0.000    
      5      1     15      1       450.0           450.0           0.000    
      6      1     16      1       450.0           450.0           0.000    
      7      1     17      1       450.0           450.0           0.000    
      8      1     18      1       450.0           450.0           0.000    
      9      1     19      1       450.0           450.0           0.000    
     10      1     20      1       450.0           450.0           0.000    
     11      1     21      1       450.0           450.0           0.000    
     12      1     22      1       450.0           450.0           0.000    
     13      1     23      1       450.0           450.0           0.000    
     14      1     24      1       450.0           450.0           0.000    
     15      1     25      1       450.0           450.0           0.000    
     16      1     26      1       450.0           450.0           0.000    
     17      1     27      1       450.0           450.0           0.000    
     18      1     28      1       450.0           450.0           0.000    
     19      1     29      1       450.0           450.0           0.000    
     20      1     30      1       450.0           450.0           0.000    
     21      1     31      1       450.0           450.0           0.000    
     22      1     32      1       450.0           450.0           0.000    
     23      1     33      1       450.0           450.0           0.000    
     24      1     34      1       450.0           450.0           0.000    
     25      1     35      1       450.0           450.0           0.000    
     26      1     36      1       450.0           450.0           0.000    
     27      1     37      1       450.0           450.0           0.000    
     28      1     38      1       450.0           450.0           0.000    
     29      1     39      1       450.0           450.0           0.000    
     30      1     40      1       450.0           450.0           0.000    
     31      1     13     60       440.0           440.0           0.000    
     32      1     14     60       440.0           440.0           0.000    
     33      1     15     60       440.0           440.0           0.000    
     34      1     16     60       440.0           440.0           0.000    
     35      1     17     60       440.0           440.0           0.000    
     36      1     18     60       440.0           440.0           0.000    
     37      1     19     60       440.0           440.0           0.000    
     38      1     20     60       440.0           440.0           0.000    
     39      1     21     60       440.0           440.0           0.000    
     40      1     22     60       440.0           440.0           0.000    
     41      1     23     60       440.0           440.0           0.000    
     42      1     24     60       440.0           440.0           0.000    
     43      1     25     60       440.0           440.0           0.000    
     44      1     26     60       440.0           440.0           0.000    
     45      1     27     60       440.0           440.0           0.000    
     46      1     28     60       440.0           440.0           0.000    
     47      1     29     60       440.0           440.0           0.000    
     48      1     30     60       440.0           440.0           0.000    
     49      1     31     60       440.0           440.0           0.000    
     50      1     32     60       440.0           440.0           0.000    
     51      1     33     60       440.0           440.0           0.000    
     52      1     34     60       440.0           440.0           0.000    
     53      1     35     60       440.0           440.0           0.000    
     54      1     36     60       440.0           440.0           0.000    
     55      1     37     60       440.0           440.0           0.000    
     56      1     38     60       440.0           440.0           0.000    
     57      1     39     60       440.0           440.0           0.000    
     58      1     40     60       440.0           440.0           0.000    


     58 TIME-VARIANT SPECIFIED-HEAD CELLS
 
 SOLVING FOR HEAD 


     4 CALLS TO PCG ROUTINE FOR TIME STEP   1 IN STRESS PERIOD    1
    74 TOTAL ITERATIONS

 MAXIMUM HEAD CHANGE FOR EACH ITERATION (1 INDICATES THE FIRST INNER ITERATION):

    HEAD CHANGE    HEAD CHANGE    HEAD CHANGE    HEAD CHANGE    HEAD CHANGE 
   LAYER,ROW,COL  LAYER,ROW,COL  LAYER,ROW,COL  LAYER,ROW,COL  LAYER,ROW,COL
 ---------------------------------------------------------------------------
  1   545.7      0   398.0      0   238.5      0   206.0      0   124.2    
   (  1, 22, 59)  (  1, 10, 42)  (  1, 38, 48)  (  1, 35, 32)  (  1, 38, 28)
  0   151.4      0   123.6      0   92.10      0   74.91      0   79.49    
   (  1, 35, 32)  (  1, 34, 33)  (  1, 38, 25)  (  1, 39, 24)  (  1, 35, 32)
  0   61.79      0   23.27      0   13.48      0   11.80      0   4.696    
   (  1, 36, 31)  (  1, 39, 24)  (  1, 36, 31)  (  1, 37, 30)  (  1, 34, 34)
  0  -3.826      0  -3.330      0   3.783      0  -2.082      0 -0.8002    
   (  1,  4, 14)  (  1,  5, 13)  (  1, 10, 42)  (  1,  2, 21)  (  1,  2, 24)
  0 -0.4678      0 -0.2588      0 -0.1655      0 -0.9979E-01  0  0.6192E-01
   (  1,  4, 19)  (  1,  2, 30)  (  1,  9, 18)  (  1,  8, 23)  (  1, 39, 14)
  0 -0.3010E-01  0  0.3067E-01  0 -0.2651E-01  0  0.1363E-01  0 -0.6724E-02
   (  1,  2, 32)  (  1, 10, 42)  (  1, 10, 42)  (  1, 36, 31)  (  1,  4, 36)
  1  -324.1      0  -185.6      0  -98.55      0  -74.13      0  -56.59    
   (  1, 18, 32)  (  1, 10, 42)  (  1,  9, 43)  (  1, 11, 41)  (  1,  2, 41)
  0  -25.51      0  -15.47      0  -11.87      0  -7.841      0   4.188    
   (  1, 35, 32)  (  1, 34, 33)  (  1, 35, 32)  (  1, 36, 31)  (  1, 36, 31)
  0  -2.428      0  -1.257      0   1.081      0  0.5387      0  0.7174    
   (  1, 39, 12)  (  1, 38, 15)  (  1, 37, 30)  (  1,  9, 43)  (  1, 10, 42)
  0 -0.3563      0 -0.1746      0 -0.8434E-01  0 -0.6792E-01  0  0.3441E-01
   (  1, 10, 42)  (  1, 37, 18)  (  1, 38, 25)  (  1, 39, 13)  (  1, 35, 32)
  0 -0.1478E-01  0 -0.7862E-02  0  0.4133E-02  0 -0.3837E-02  0  0.3855E-02
   (  1,  8,  9)  (  1,  2, 19)  (  1,  9, 28)  (  1, 10, 42)  (  1, 10, 42)
  0 -0.7886E-03  0  0.3654E-03  0  0.3887E-03  0  0.2904E-03  0 -0.9025E-04
   (  1, 10, 42)  (  1, 12, 22)  (  1, 35, 32)  (  1, 36, 31)  (  1, 36, 31)
  1  0.7844E-04  0  0.6966E-04  0  0.2417E-04  0 -0.4592E-04  0  0.2239E-04
   (  1, 36, 31)  (  1, 37, 29)  (  1, 10, 42)  (  1, 10, 42)  (  1, 35, 32)
  0 -0.1886E-04  0  0.5172E-05  0  0.3084E-05  0  0.2486E-05  0  0.1135E-05
   (  1, 35, 32)  (  1, 33, 35)  (  1, 36, 31)  (  1, 38, 28)  (  1, 39, 24)
  0  0.1185E-05  0 -0.4200E-06  0 -0.1960E-06  1  0.2155E-06
   (  1, 34, 33)  (  1, 34, 34)  (  1, 38, 15)  (  1, 38, 17)

 MAXIMUM RESIDUAL FOR EACH ITERATION (1 INDICATES THE FIRST INNER ITERATION):

    RESIDUAL       RESIDUAL       RESIDUAL       RESIDUAL       RESIDUAL    
   LAYER,ROW,COL  LAYER,ROW,COL  LAYER,ROW,COL  LAYER,ROW,COL  LAYER,ROW,COL
 ---------------------------------------------------------------------------
  1 -0.5501E+06  0  0.7573E+06  0  0.3017E+06  0  0.2521E+06  0  0.1747E+06
   (  1, 13, 59)  (  1, 10, 42)  (  1, 40, 59)  (  1, 14, 59)  (  1, 13, 59)
  0 -0.1693E+06  0  0.1193E+06  0 -0.1169E+06  0 -0.1106E+06  0 -0.8780E+05
   (  1, 34, 33)  (  1, 34, 33)  (  1, 40, 59)  (  1, 40, 59)  (  1, 36, 31)
  0  0.7151E+05  0  0.5503E+05  0  0.3817E+05  0  0.1910E+05  0  0.1092E+05
   (  1, 14, 58)  (  1, 14, 58)  (  1, 14, 58)  (  1, 14, 58)  (  1, 40, 59)
  0   9278.      0  -9524.      0   4368.      0  -3002.      0  -2155.    
   (  1, 40, 59)  (  1, 10, 42)  (  1, 40, 59)  (  1, 14, 58)  (  1, 14, 58)
  0  -1235.      0  -816.2      0  -548.4      0  -259.2      0  -114.1    
   (  1, 14, 58)  (  1, 40, 59)  (  1, 40, 59)  (  1, 40, 59)  (  1, 15, 57)
  0   64.27      0   64.69      0   49.66      0   34.54      0   23.24    
   (  1, 14, 58)  (  1, 10, 42)  (  1, 35, 32)  (  1, 40, 59)  (  1, 40, 59)
  1  0.1318E+06  0 -0.3442E+06  0 -0.4634E+05  0  0.4008E+05  0  0.3187E+05
   (  1, 10, 42)  (  1, 10, 42)  (  1, 16, 29)  (  1, 33, 35)  (  1, 16, 31)
  0 -0.4368E+05  0  0.3283E+05  0  0.1303E+05  0 -0.1137E+05  0  -5640.    
   (  1, 35, 32)  (  1, 35, 32)  (  1, 36, 31)  (  1, 36, 31)  (  1, 19, 21)
  0  -3904.      0  -2597.      0  -1724.      0  -1044.      0   1167.    
   (  1, 19, 21)  (  1, 37, 29)  (  1, 20, 20)  (  1, 20, 20)  (  1, 10, 42)
  0  -476.7      0  -280.2      0  -173.7      0  -107.6      0  -51.13    
   (  1, 20, 20)  (  1, 20, 20)  (  1, 21, 59)  (  1, 21, 59)  (  1, 21, 59)
  0   26.77      0   14.00      0  -7.788      0  -10.35      0  -4.205    
   (  1, 19, 33)  (  1, 19, 33)  (  1, 16, 26)  (  1, 10, 42)  (  1, 16, 26)
  0   2.347      0  -1.148      0   1.228      0 -0.4972      0 -0.2563    
   (  1, 21, 59)  (  1, 16, 26)  (  1, 35, 32)  (  1, 16, 30)  (  1, 16, 30)
  1  0.8938      0  0.6850      0  0.3296      0  0.2563      0  0.1336    
   (  1, 19, 33)  (  1, 19, 33)  (  1, 19, 33)  (  1, 19, 33)  (  1, 19, 33)
  0  0.8267E-01  0  0.3443E-01  0  0.1551E-01  0  0.9072E-02  0  0.3774E-02
   (  1, 19, 33)  (  1, 19, 33)  (  1, 19, 33)  (  1, 19, 33)  (  1, 19, 33)
  0  0.1878E-02  0  0.1143E-02  0  0.7025E-03  1  0.6243E-03
   (  1, 19, 33)  (  1, 21, 10)  (  1, 21, 10)  (  1, 21, 10)



 OUTPUT CONTROL FOR STRESS PERIOD    1   TIME STEP    1
    SAVE HEAD FOR ALL LAYERS
    SAVE DRAWDOWN FOR ALL LAYERS
    SAVE BUDGET
    PRINT BUDGET
 UBDSV2 SAVING "   CONSTANT HEAD" ON UNIT   9 AT TIME STEP  1, STRESS PERIOD   1
 UBDSV1 SAVING "FLOW RIGHT FACE " ON UNIT   9 AT TIME STEP  1, STRESS PERIOD   1
 UBDSV1 SAVING "FLOW FRONT FACE " ON UNIT   9 AT TIME STEP  1, STRESS PERIOD   1
 UBDSV4 SAVING "   RIVER LEAKAGE" ON UNIT   9 AT TIME STEP  1, STRESS PERIOD   1
 UBDSV3 SAVING "        RECHARGE" ON UNIT   9 AT TIME STEP  1, STRESS PERIOD   1

 HEAD WILL BE SAVED ON UNIT   37 AT END OF TIME STEP    1, STRESS PERIOD    1

 DRAWDOWN WILL BE SAVED ON UNIT   38 AT END OF TIME STEP    1, STRESS PERIOD    1
1
  VOLUMETRIC BUDGET FOR ENTIRE MODEL AT END OF TIME STEP    1, STRESS PERIOD   1
  ------------------------------------------------------------------------------

     CUMULATIVE VOLUMES      L**3       RATES FOR THIS TIME STEP      L**3/T
     ------------------                 ------------------------

           IN:                                      IN:
           ---                                      ---
             STORAGE =           0.0000               STORAGE =           0.0000
       CONSTANT HEAD =   115146352.0000         CONSTANT HEAD =       15773.4727
       RIVER LEAKAGE =    43334552.0000         RIVER LEAKAGE =        5936.2402
            RECHARGE =    46848000.0000              RECHARGE =        6417.5342

            TOTAL IN =   205328896.0000              TOTAL IN =       28127.2461

          OUT:                                     OUT:
          ----                                     ----
             STORAGE =           0.0000               STORAGE =           0.0000
       CONSTANT HEAD =   106772448.0000         CONSTANT HEAD =       14626.3633
       RIVER LEAKAGE =    98772936.0000         RIVER LEAKAGE =       13530.5391
            RECHARGE =           0.0000              RECHARGE =           0.0000

           TOTAL OUT =   205545376.0000             TOTAL OUT =       28156.9023

            IN - OUT =     -216480.0000              IN - OUT =         -29.6562

 PERCENT DISCREPANCY =          -0.11     PERCENT DISCREPANCY =          -0.11






         TIME SUMMARY AT END OF TIME STEP    1 IN STRESS PERIOD    1
                    SECONDS     MINUTES      HOURS       DAYS        YEARS
                    -----------------------------------------------------------
   TIME STEP LENGTH 6.30720E+08 1.05120E+07 1.75200E+05  7300.0      19.986    
 STRESS PERIOD TIME 6.30720E+08 1.05120E+07 1.75200E+05  7300.0      19.986    
         TOTAL TIME 6.30720E+08 1.05120E+07 1.75200E+05  7300.0      19.986    
1

 HEAD AND DRAWDOWN OBSERVATIONS
 OBSERVATION       OBSERVED           SIMULATED
   NAME              VALUE              VALUE             DIFFERENCE
 --------------------------------------------------------------------
 GWM-2           452.20001221        449.98062134        2.2193908691    
 GWM-5           448.50000000        448.16986084       0.33013916016    
 GWM-3           444.29998779        444.41586304      -0.11587524414    
 GWM-4           440.00000000        440.27142334      -0.27142333984    
 GWM-6           440.10000610        440.00000000       0.10000610352    
 GWM-7           445.50000000        445.84078979      -0.34078979492    
 GWM-8           446.39999390        446.88122559      -0.48123168945    

 HEAD/DRAWDOWN SUM OF SQUARED DIFFERENCE:    5.47951E+00

 Run end date and time (yyyy/mm/dd hh:mm:ss): 2016/08/02 16:41:02
 Elapsed run time:  0.074 Seconds

