                                  MODFLOW-2005     
      U.S. GEOLOGICAL SURVEY MODULAR FINITE-DIFFERENCE GROUND-WATER FLOW MODEL
                            VERSION 1.11.00 8/8/2013

If you are attempting to run MODFLOW, you are making a big ***ERROR***. This is not MODFLOW. This program should only be used for importing existing models into ModelMuse.
 LIST FILE: Modflow_exercise.lst
                         UNIT   11
 OPENING:
           9 Modflow_exercise.cbc

 OPENING Modflow_exercise.cbc
 FILE TYPE:DATA(BINARY)   UNIT    9   STATUS:REPLACE
 FORMAT:BINARY                 ACCESS:SEQUENTIAL          
 OPENING:
          12 Modflow_exercise.dis

 OPENING Modflow_exercise.dis
 FILE TYPE:DIS   UNIT   12   STATUS:OLD    
 FORMAT:FORMATTED              ACCESS:SEQUENTIAL          
 OPENING:
          13 Modflow_exercise.bas

 OPENING Modflow_exercise.bas
 FILE TYPE:BAS6   UNIT   13   STATUS:OLD    
 FORMAT:FORMATTED              ACCESS:SEQUENTIAL          
 OPENING:
          39 Modflow_exercise.oc

 OPENING Modflow_exercise.oc
 FILE TYPE:OC   UNIT   39   STATUS:OLD    
 FORMAT:FORMATTED              ACCESS:SEQUENTIAL          
 OPENING:
          37 Modflow_exercise.fhd

 OPENING Modflow_exercise.fhd
 FILE TYPE:DATA   UNIT   37   STATUS:REPLACE
 FORMAT:FORMATTED              ACCESS:SEQUENTIAL          
 OPENING:
          38 Modflow_exercise.fdn

 OPENING Modflow_exercise.fdn
 FILE TYPE:DATA   UNIT   38   STATUS:REPLACE
 FORMAT:FORMATTED              ACCESS:SEQUENTIAL          
 OPENING:
          18 Modflow_exercise.pcg

 OPENING Modflow_exercise.pcg
 FILE TYPE:PCG   UNIT   18   STATUS:OLD    
 FORMAT:FORMATTED              ACCESS:SEQUENTIAL          
 OPENING:
          14 Modflow_exercise.lpf

 OPENING Modflow_exercise.lpf
 FILE TYPE:LPF   UNIT   14   STATUS:OLD    
 FORMAT:FORMATTED              ACCESS:SEQUENTIAL          
 OPENING:
          17 Modflow_exercise.chd

 OPENING Modflow_exercise.chd
 FILE TYPE:CHD   UNIT   17   STATUS:OLD    
 FORMAT:FORMATTED              ACCESS:SEQUENTIAL          
 OPENING:
          21 Modflow_exercise.riv

 OPENING Modflow_exercise.riv
 FILE TYPE:RIV   UNIT   21   STATUS:OLD    
 FORMAT:FORMATTED              ACCESS:SEQUENTIAL          
 OPENING:
          24 Modflow_exercise.rch

 OPENING Modflow_exercise.rch
 FILE TYPE:RCH   UNIT   24   STATUS:OLD    
 FORMAT:FORMATTED              ACCESS:SEQUENTIAL          
 OPENING:
          41 Modflow_exercise.ob_hob

 OPENING Modflow_exercise.ob_hob
 FILE TYPE:HOB   UNIT   41   STATUS:OLD    
 FORMAT:FORMATTED              ACCESS:SEQUENTIAL          
 OPENING:
          42 Modflow_exercise.hob_out

 OPENING Modflow_exercise.hob_out
 FILE TYPE:DATA   UNIT   42   STATUS:REPLACE
 FORMAT:FORMATTED              ACCESS:SEQUENTIAL          

 BAS -- BASIC PACKAGE, VERSION 7, 5/2/2005 INPUT READ FROM UNIT   13

 DISCRETIZATION INPUT DATA READ FROM UNIT   12
 COMMENT:
                                                                                                                               # Discretization File created on 27.07.2016 by ModelMuse version 3.7.1.0.
 COMMENT:
                                                                                                                                                                # Upper left corner: (2.44921E-13, 4000)
 COMMENT:
                                                                                                                                                                   # Lower left corner: (2.44921E-13, 0)
 COMMENT:
                                                                                                                                                                      # Upper right corner: (6000, 4000)
 COMMENT:
                                                                                                                                                                         # Lower right corner: (6000, 0)
 COMMENT:
                                                                                                                                                           # Grid angle (in degrees counterclockwise): 0
 DIS:
 NLAY, NROW, NCOL, NPER, ITMUNI, LENUNI:
           1          40          60           1           4           2
 LAYCBD(K):
           0
 VARIABLE 1D REAL ARRAY:
                     DELR
   100.0000       100.0000       100.0000       100.0000       100.0000    
   100.0000       100.0000       100.0000       100.0000       100.0000    
   100.0000       100.0000       100.0000       100.0000       100.0000    
   100.0000       100.0000       100.0000       100.0000       100.0000    
   100.0000       100.0000       100.0000       100.0000       100.0000    
   100.0000       100.0000       100.0000       100.0000       100.0000    
   100.0000       100.0000       100.0000       100.0000       100.0000    
   100.0000       100.0000       100.0000       100.0000       100.0000    
   100.0000       100.0000       100.0000       100.0000       100.0000    
   100.0000       100.0000       100.0000       100.0000       100.0000    
   100.0000       100.0000       100.0000       100.0000       100.0000    
   100.0000       100.0000       100.0000       100.0000       100.0000    
 CONSTANT 1D REAL ARRAY:
                     DELC
   100.0000    
 CONSTANT 2D REAL ARRAY:
 TOP ELEVATION OF LAYER 1
   460.0000    
 CONSTANT 2D REAL ARRAY FOR A LAYER:
   MODEL LAYER BOTTOM EL.
           1
   390.0000    
 N,PERLEN(N),NSTP(N),TSMULT(N),ISSFLG(N):
           1   7300.000               1   1.000000               1
 BAS:
 
 HEADNG(1):
 # Basic Package file created on 27.07.2016 by ModelMuse version 3.7.1.0.       
  
 HEADNG(2):
                                                                                
  
 IXSEC, ICHFLG, IFREFM, IPRTIM, STOPER:
           0           1           1           1  0.0000000E+00
 VARIABLE 2D INTEGER ARRAY FOR A LAYER:
           BOUNDARY ARRAY
           1
           0           0           0           0           0           0
           0           0           0           0           0           0
           0           0           0           0           0           0
           0           0           0           0           0           0
           0           0           0           0           0           0
           0           0           0           0           0           0
           0           0           0           0           0           0
           0           0           0           0           0           0
           0           0           0           0           0           0
           0           0           0           0           0           0
           0           0           0           0           0           0
           0           0           0           0           0           0
           0           0           0           0           1           1
           1           1           1           1           1           1
           1           0           0           0           1           1
           1           1           0           0           1           1
           1           1           1           1           1           0
           0           0           0           0           0           0
           0           0           0           0           0           0
           0           0           0           0           0           0
           0           0           0           0           0           0
           0           0           0           0           0           0
           0           1           1           1           1           1
           1           1           1           1           1           1
           1           1           1           1           1           1
           1           1           1           1           1           1
           1           1           1           1           1           1
           1           1           1           1           1           1
           0           0           0           0           0           0
           0           0           0           0           0           0
           0           0           0           0           0           0
           0           0           0           0           0           0
           1           1           1           1           1           1
           1           1           1           1           1           1
           1           1           1           1           1           1
           1           1           1           1           1           1
           1           1           1           1           1           1
           1           1           1           1           1           1
           1           0           0           0           0           0
           0           0           0           0           0           0
           0           0           0           0           0           0
           0           0           0           1           1           1
           1           1           1           1           1           1
           1           1           1           1           1           1
           1           1           1           1           1           1
           1           1           1           1           1           1
           1           1           1           1           1           1
           1           1           1           1           1           1
           1           1           0           0           0           0
           0           0           0           0           0           0
           0           0           0           0           0           0
           0           0           1           1           1           1
           1           1           1           1           1           1
           1           1           1           1           1           1
           1           1           1           1           1           1
           1           1           1           1           1           1
           1           1           1           1           1           1
           1           1           1           1           1           1
           1           1           1           1           0           0
           0           0           0           0           0           0
           0           0           0           0           0           0
           0           1           1           1           1           1
           1           1           1           1           1           1
           1           1           1           1           1           1
           1           1           1           1           1           1
           1           1           1           1           1           1
           1           1           1           1           1           1
           1           1           1           1           1           1
           1           1           1           1           1           1
           1           0           0           0           0           0
           0           0           0           0           0           1
           1           1           1           1           1           1
           1           1           1           1           1           1
           1           1           1           1           1           1
           1           1           1           1           1           1
           1           1           1           1           1           1
           1           1           1           1           1           1
           1           1           1           1           1           1
           1           1           1           1           1           1
           1           1           1           0           0           0
           0           0           0           0           1           1
           1           1           1           1           1           1
           1           1           1           1           1           1
           1           1           1           1           1           1
           1           1           1           1           1           1
           1           1           1           1           1           1
           1           1           1           1           1           1
           1           1           1           1           1           1
           1           1           1           1           1           1
           1           1           1           0           0           0
           0           0           1           1           1           1
           1           1           1           1           1           1
           1           1           1           1           1           1
           1           1           1           1           1           1
           1           1           1           1           1           1
           1           1           1           1           1           1
           1           1           1           1           1           1
           0           0           0           0           0           0
           1           1           1           1           1           1
           1           1           1           1           0           0
           1           1           1           1           1           1
           1           1           1           1           1           1
           1           1           1           1           1           1
           1           1           1           1           1           1
           1           1           1           1           1           1
           1           1           1           1           1           1
           1           1           1           1           1           0
           0           0           0           0           0           0
           1           1           1           1           1           1
           1           1           1           1           0           0
           1           1           1           1           1           1
           1           1           1           1           1           1
           1           1           1           1           1           1
           1           1           1           1           1           1
           1           1           1           1           1           1
           1           1           1           1           1           1
           1           1           1           1           1           1
           0           0           0           0           0           0
           1           1           1           1           1           1
           1           1           1           1           0           0
           1           1           1           1           1           1
           1           1           1           1           1           1
           1           1           1           1           1           1
           1           1           1           1           1           1
           1           1           1           1           1           1
           1           1           1           1           1           1
           1           1           1           1           1           1
           1           0           0           0           0           0
           1           1           1           1           1           1
           1           1           1           1           1           1
           1           1           1           1           1           1
           1           1           1           1           1           1
           1           1           1           1           1           1
           1           1           1           1           1           1
           1           1           1           1           1           1
           1           1           1           1           1           1
           1           1           1           1           1           1
           1           1           0           0           0           0
           0           1           1           1           1           1
           1           1           1           1           1           1
           1           1           1           1           1           1
           1           1           1           1           1           1
           1           1           1           1           1           1
           1           1           1           1           1           1
           1           1           1           1           1           1
           1           1           1           1           1           1
           1           1           1           1           1           1
           1           1           1           0           0           0
           0           1           1           1           1           1
           1           1           1           1           1           1
           1           1           1           1           1           1
           1           1           1           1           1           1
           1           1           1           1           1           1
           1           1           1           1           1           1
           1           1           1           1           1           1
           1           1           1           1           1           1
           1           1           1           1           1           1
           1           1           1           1           1           0
           1           1           1           1           1           1
           1           1           1           1           1           1
           1           1           1           1           1           1
           1           1           1           1           1           1
           1           1           1           1           1           1
           1           1           1           1           1           1
           1           1           1           1           1           1
           1           1           1           1           1           1
           1           1           1           1           1           1
           1           1           1           1           1           1
           1           1           1           1           1           1
           1           1           1           1           1           1
           1           1           1           1           1           1
           1           1           1           1           1           1
           1           1           1           1           1           1
           1           1           1           1           1           1
           1           1           1           1           1           1
           1           1           1           1           1           1
           1           1           1           1           1           1
           1           1           1           1           1           1
           1           1           1           1           1           1
           1           1           1           1           1           1
           1           1           1           1           1           1
           1           1           1           1           1           1
           1           1           1           1           1           1
           1           1           1           1           1           1
           1           1           1           1           1           1
           1           1           1           1           1           1
           1           1           1           1           1           1
           1           1           1           1           1           1
           1           1           1           1           1           1
           1           1           1           1           1           1
           1           1           1           1           1           1
           1           1           1           1           1           1
           1           1           1           1           1           1
           1           1           1           1           1           1
           1           1           1           1           1           1
           1           1           1           1           1           1
           1           1           1           1           1           1
           1           1           1           1           1           1
           1           1           1           1           1           1
           1           1           1           1           1           1
           1           1           1           1           1           1
           1           1           1           1           1           1
           1           1           1           1           1           1
           1           1           1           1           1           1
           1           1           1           1           1           1
           1           1           1           1           1           1
           1           1           1           1           1           1
           1           1           1           1           1           1
           1           1           1           1           1           1
           1           1           1           1           1           1
           1           1           1           1           1           1
           1           1           1           1           1           1
           1           1           1           1           1           1
           1           1           1           1           1           1
           1           1           1           1           1           1
           1           1           1           1           1           1
           1           1           1           1           1           1
           1           1           1           1           1           1
           1           1           1           1           1           1
           1           1           1           1           1           1
           1           1           1           1           1           1
           1           1           1           1           1           1
           1           1           1           1           1           1
           1           1           1           1           1           1
           1           1           1           1           1           1
           1           1           1           1           1           1
           1           1           1           1           1           1
           1           1           1           1           1           1
           1           1           1           1           1           1
           1           1           1           1           1           1
           1           1           1           1           1           1
           1           1           1           1           1           1
           1           1           1           1           1           1
           1           1           1           1           1           1
           1           1           1           1           1           1
           1           1           1           1           1           1
           1           1           1           1           1           1
           1           1           1           1           1           1
           1           1           1           1           1           1
           1           1           1           1           1           1
           1           1           1           1           1           1
           1           1           1           1           1           1
           1           1           1           1           1           1
           1           1           1           1           1           1
           1           1           1           1           1           1
           1           1           1           1           1           1
           1           1           1           1           1           1
           1           1           1           1           1           1
           1           1           1           1           1           1
           1           1           1           1           1           1
           1           1           1           1           1           1
           1           1           1           1           1           1
           1           1           1           1           1           1
           1           1           1           1           1           1
           1           1           1           1           1           1
           1           1           1           1           1           1
           1           1           1           1           1           1
           1           1           1           1           1           1
           1           1           1           1           1           1
           1           1           1           1           1           1
           1           1           1           1           1           1
           1           1           1           1           1           1
           1           1           1           1           1           1
           1           1           1           1           1           1
           1           1           1           1           1           1
           1           1           1           1           1           1
           1           1           1           1           1           1
           1           1           1           1           1           1
           1           1           1           1           1           1
           1           1           1           1           1           1
           1           1           1           1           1           1
           1           1           1           1           1           1
           1           1           1           1           1           1
           1           1           1           1           1           1
           1           1           1           1           1           1
           1           1           1           1           1           1
           1           1           1           1           1           1
           1           1           1           1           1           1
           1           1           1           1           1           1
           1           1           1           1           1           1
           1           1           1           1           1           1
           1           1           1           1           1           1
           1           1           1           1           1           1
           1           1           1           1           1           1
           1           1           1           1           1           1
           1           1           1           1           1           1
           1           1           1           1           1           1
           1           1           1           1           1           1
           1           1           1           1           1           1
           1           1           1           1           1           1
           1           1           1           1           1           1
           1           1           1           1           1           1
           1           1           1           1           1           1
           1           1           1           1           1           1
           1           1           1           1           1           1
           1           1           1           1           1           1
           1           1           1           1           1           1
           1           1           1           1           1           1
           1           1           1           1           1           1
           1           1           1           1           1           1
           1           1           1           1           1           1
           1           1           1           1           1           1
           1           1           1           1           1           1
           1           1           1           1           1           1
           1           1           1           1           1           1
           1           1           1           1           1           1
           1           1           1           1           1           1
           1           1           1           1           1           1
           1           1           1           1           1           1
           1           1           1           1           1           1
           1           1           1           1           1           1
           1           1           1           1           1           1
           1           1           1           1           1           1
           1           1           1           1           1           1
           1           1           1           1           1           1
           1           1           1           1           1           1
           1           1           1           1           1           1
           1           1           1           1           1           1
           1           1           1           1           1           1
           1           1           1           1           1           1
           1           1           1           1           1           1
           1           1           1           1           1           1
           1           1           1           1           1           1
           1           1           1           1           1           1
           1           1           1           1           1           1
           1           1           1           1           1           1
           1           1           1           1           1           1
           1           1           1           1           1           1
           1           1           1           1           1           1
           1           1           1           1           1           1
           1           1           1           1           1           1
           1           1           1           1           1           1
           1           1           1           1           1           1
           1           1           1           1           1           1
           1           1           1           1           1           1
           1           1           1           1           0           0
           0           0           0           1           1           1
           1           1           1           1           1           1
           1           1           1           1           1           1
           1           1           1           1           1           1
           1           1           1           1           1           1
           1           1           1           1           1           1
           1           1           1           1           1           1
           1           1           1           1           1           1
           1           1           1           1           1           1
           1           1           0           0           0           0
           0           0           0           0           0           0
           1           1           1           1           1           1
           1           1           1           1           1           1
           1           1           1           1           1           1
           1           1           1           1           1           1
           1           1           1           1           1           1
           1           1           1           1           1           1
           1           1           1           1           1           1
           1           1           1           1           1           1
           1           0           0           0           0           0
           0           0           0           0           0           0
           0           1           1           1           1           1
           1           1           1           1           1           1
           1           1           1           1           1           1
           1           1           1           1           1           1
           1           1           1           1           1           1
           1           1           1           1           1           1
           1           1           1           1           1           1
           1           1           1           1           1           1
           0           0           0           0           0           0
           0           0           0           0           0           0
           0           1           1           1           1           1
           1           1           1           1           1           1
           1           1           1           1           1           1
           1           1           1           1           1           1
           1           1           1           1           1           1
           1           1           1           1           1           0
           1           1           1           1           1           1
           1           1           1           1           0           0
           0           0           0           0           0           0
           0           0           0           0           0           0
           0           0           0           0           0           1
           1           1           1           1           1           1
           1           1           1           1           1           1
           1           1           1           1           1           1
           1           1           1           1           1           1
           1           1           0           0           0           0
           0           0           0           1           1           1
           0           0           0           0           0           0
           0           0           0           0           0           0
           0           0           0           0           0           0
           0           0           0           0           0           0
           0           0           0           0           1           1
           1           1           1           1           1           1
           1           1           1           1           1           1
           1           1           1           1           1           0
           0           0           0           0           0           0
           0           0           0           0           0           0
           0           0           0           0           0           0
           0           0           0           0           0           0
           0           0           0           0           0           0
           0           0           0           0           0           0
           0           0           0           0           0           0
           1           1           1           1           1           1
 HNOFLO:
 -2.0000000E+20
 CONSTANT 2D REAL ARRAY FOR A LAYER:
             INITIAL HEAD
           1
  0.0000000E+00
 ZONE_MULT:
 NZONAR:
           0
 NMLTAR:
           0
 LPF:
 COMMENT:
                                                                                                             # LPF: Layer Property Flow package file created on 27.07.2016 by ModelMuse version 3.7.1.0.
 ILPFCB, HDRY, NPLPF:
           9 -1.0000000E+20           0
 ISFAC, ICONCV, ITHFLG, NOCVCO, NOVFC, NOPCHK:
           0           0           0           0           0           0
 K,LAYTYP(K),LAYAVG(K),CHANI(K),LAYVKA(K),LAYWET(K):
           1           0           0  -1.000000               0           0
 CONSTANT 2D REAL ARRAY FOR A LAYER:
    HYD. COND. ALONG ROWS
           1
   43.20000    
 CONSTANT 2D REAL ARRAY FOR A LAYER:
   HORIZ. ANI. (COL./ROW)
           1
   1.000000    
 CONSTANT 2D REAL ARRAY FOR A LAYER:
      VERTICAL HYD. COND.
           1
   4.320000    
 RIV:
 COMMENT:
                                                                                                                           # RIV: River package file created on 27.07.2016 by ModelMuse version 3.7.1.0.
 MXACTR,IRIVCB:
          85           9
 RIVAUX(NAUX):
 IFACE           
 RCH:
 COMMENT:
                                                                                                                        # RCH: Recharge package file created on 27.07.2016 by ModelMuse version 3.7.1.0.
 NP:
           0
 NRCHOP,IRCHCB:
           1           9
 CHD:
 COMMENT:
                                                                                                     # CHD: Time-Variant Specified-Head package file created on 27.07.2016 by ModelMuse version 3.7.1.0.
 MXACTC:
          58
 CHDAUX(NAUX):
 IFACE           
 PCG:
 COMMENT:
                                                                                               # PCG: Preconditioned Conjugate Gradient package file created on 27.07.2016 by ModelMuse version 3.7.1.0.
 MXITER, ITER1, NPCOND, IHCOFADD:
          20          30           1           0
 HCLOSEPCG,RCLOSEPCG,RELAXPCG,NBPOL,IPRPCG,MUTPCG,DAMPPCG:
  1.0000000E-03  1.0000000E-03   1.000000               1           1
           0   1.000000       1.000000    
 HOB:
 COMMENT:
                                                                                                                # HOB: Head Observation package file created on 27.07.2016 by ModelMuse version 3.7.1.0.
 NH, MOBS, MAXM, IUHOBSV, HOBDRY:
           7           0           2          42  -1000000.    
 TOMULTH:
   1.000000    
 OBSNAM_D3:
 GWM-2       
 LAYER ROW COLUMN IREFSP TOFFSET ROFF COFF HOBS:
           1          17           1           1   7300.000      0.0000000E+00
  0.1000000       452.2000    
 OBSNAM_D3:
 GWM-5       
 LAYER ROW COLUMN IREFSP TOFFSET ROFF COFF HOBS:
           1          36          14           1   7300.000     -0.1000000    
 -0.2000000       448.5000    
 OBSNAM_D3:
 GWM-3       
 LAYER ROW COLUMN IREFSP TOFFSET ROFF COFF HOBS:
           1          30          34           1   7300.000     -0.4000000    
  0.3000000       444.3000    
 OBSNAM_D3:
 GWM-4       
 LAYER ROW COLUMN IREFSP TOFFSET ROFF COFF HOBS:
           1          20          59           1   7300.000     -0.1000000    
 -0.5000000       440.0000    
 OBSNAM_D3:
 GWM-6       
 LAYER ROW COLUMN IREFSP TOFFSET ROFF COFF HOBS:
           1          28          60           1   7300.000      0.2000000    
  0.0000000E+00   440.1000    
 OBSNAM_D3:
 GWM-7       
 LAYER ROW COLUMN IREFSP TOFFSET ROFF COFF HOBS:
           1          12          25           1   7300.000      0.5000000    
  0.0000000E+00   445.5000    
 OBSNAM_D3:
 GWM-8       
 LAYER ROW COLUMN IREFSP TOFFSET ROFF COFF HOBS:
           1           6          17           1   7300.000      0.0000000E+00
  0.2000000       446.4000    
 KPER:
           1
 RIV:
 ITMP:
          85
 Layer Row Column Stage  Cond Rbot [xyz]:

           1          25           1   449.9433       36917.62    
   448.9433      0.0000000E+00
           1          25           2   449.8139       50497.71    
   448.8139      0.0000000E+00
           1          25           3   449.6401       52913.70    
   448.6401      0.0000000E+00
           1          25           4   449.5497       20176.03    
   448.5497      0.0000000E+00
           1          24           4   449.4693       33551.34    
   448.4693      0.0000000E+00
           1          24           5   449.3387       53727.37    
   448.3387      0.0000000E+00
           1          24           6   449.1844       49342.31    
   448.1844      0.0000000E+00
           1          23           6   449.1039       4385.058    
   448.1039      0.0000000E+00
           1          23           7   448.9463       55196.06    
   447.9463      0.0000000E+00
           1          23           8   448.8697       41750.70    
   447.8697      0.0000000E+00
           1          22           8   448.7744       21861.58    
   447.7744      0.0000000E+00
           1          22           9   448.6534       59016.88    
   447.6534      0.0000000E+00
           1          21           9   448.5582       4595.394    
   447.5582      0.0000000E+00
           1          21          10   448.4561       63612.28    
   447.4561      0.0000000E+00
           1          21          11   448.3419       12670.80    
   447.3419      0.0000000E+00
           1          20          11   448.2467       50941.48    
   447.2467      0.0000000E+00
           1          20          12   448.0829       29814.12    
   447.0829      0.0000000E+00
           1          19          12   448.0264       36571.18    
   447.0264      0.0000000E+00
           1          19          13   447.8471       60585.95    
   446.8471      0.0000000E+00
           1          19          14   447.7177       48506.73    
   446.7177      0.0000000E+00
           1          20          14   447.6330       8110.990    
   446.6330      0.0000000E+00
           1          20          15   447.5361       56617.72    
   446.5361      0.0000000E+00
           1          20          16   447.3887       41845.82    
   446.3887      0.0000000E+00
           1          21          16   447.3040       14771.90    
   446.3040      0.0000000E+00
           1          21          17   447.1971       56617.72    
   446.1971      0.0000000E+00
           1          21          18   446.9990       59305.99    
   445.9990      0.0000000E+00
           1          21          19   446.8890       30598.00    
   445.8890      0.0000000E+00
           1          20          19   446.7986       29809.74    
   445.7986      0.0000000E+00
           1          20          20   446.6652       59291.68    
   445.6652      0.0000000E+00
           1          19          20   446.5748       1116.060    
   445.5748      0.0000000E+00
           1          19          21   446.4827       60407.74    
   445.4827      0.0000000E+00
           1          19          22   446.3510       27577.62    
   445.3510      0.0000000E+00
           1          18          22   446.2606       32830.12    
   445.2606      0.0000000E+00
           1          18          23   446.1272       56271.29    
   445.1272      0.0000000E+00
           1          17          23   446.0368       4136.447    
   445.0368      0.0000000E+00
           1          17          24   445.9119       55849.66    
   444.9119      0.0000000E+00
           1          17          25   445.7842       52949.07    
   444.7842      0.0000000E+00
           1          17          26   445.6757       19520.55    
   444.6757      0.0000000E+00
           1          16          26   445.5965       33428.53    
   444.5965      0.0000000E+00
           1          16          27   445.4044       52513.21    
   444.4044      0.0000000E+00
           1          16          28   445.3132       50772.58    
   444.3132      0.0000000E+00
           1          16          29   445.1612       50772.58    
   444.1612      0.0000000E+00
           1          16          30   445.0149       24900.05    
   444.0149      0.0000000E+00
           1          17          30   444.9620       32534.19    
   443.9620      0.0000000E+00
           1          17          31   444.8375       50630.46    
   443.8375      0.0000000E+00
           1          18          31   444.7438       11941.04    
   443.7438      0.0000000E+00
           1          18          32   444.6323       62571.50    
   443.6323      0.0000000E+00
           1          18          33   444.5257       8652.112    
   443.5257      0.0000000E+00
           1          19          33   444.4320       53919.39    
   443.4320      0.0000000E+00
           1          19          34   444.3076       29245.26    
   443.3076      0.0000000E+00
           1          20          34   444.2139       33326.24    
   443.2139      0.0000000E+00
           1          20          35   444.0894       49838.42    
   443.0894      0.0000000E+00
           1          21          35   443.9875       14168.37    
   442.9875      0.0000000E+00
           1          21          36   443.8898       55206.08    
   442.8898      0.0000000E+00
           1          22          36   443.7806       17747.78    
   442.7806      0.0000000E+00
           1          22          37   443.6111       57908.20    
   442.6111      0.0000000E+00
           1          23          37   443.5698       7267.975    
   442.5698      0.0000000E+00
           1          23          38   443.4737       56900.72    
   442.4737      0.0000000E+00
           1          23          39   443.3278       40580.36    
   442.3278      0.0000000E+00
           1          24          39   443.2426       16320.36    
   442.2426      0.0000000E+00
           1          24          40   443.1331       56900.72    
   442.1331      0.0000000E+00
           1          24          41   443.0007       31527.97    
   442.0007      0.0000000E+00
           1          25          41   442.9059       23399.25    
   441.9059      0.0000000E+00
           1          25          42   442.8499       22454.28    
   441.8499      0.0000000E+00
           1          24          42   442.7746       27833.95    
   441.7746      0.0000000E+00
           1          24          43   442.6577       50288.22    
   441.6577      0.0000000E+00
           1          24          44   442.5071       50288.22    
   441.5071      0.0000000E+00
           1          24          45   442.3566       50288.22    
   441.3566      0.0000000E+00
           1          24          46   442.1673       50626.13    
   441.1673      0.0000000E+00
           1          24          47   442.0534       50974.69    
   441.0534      0.0000000E+00
           1          24          48   441.9008       50974.69    
   440.9008      0.0000000E+00
           1          24          49   441.7981       17679.13    
   440.7981      0.0000000E+00
           1          23          49   441.7218       33295.56    
   440.7218      0.0000000E+00
           1          23          50   441.5956       50974.69    
   440.5956      0.0000000E+00
           1          23          51   441.4430       50974.69    
   440.4430      0.0000000E+00
           1          23          52   441.2904       50974.69    
   440.2904      0.0000000E+00
           1          23          53   441.1355       51572.57    
   440.1355      0.0000000E+00
           1          23          54   441.0529       4575.086    
   440.0529      0.0000000E+00
           1          22          54   440.9757       47009.30    
   439.9757      0.0000000E+00
           1          22          55   440.8281       51584.39    
   439.8281      0.0000000E+00
           1          22          56   440.6360       51936.70    
   439.6360      0.0000000E+00
           1          22          57   440.4656       51691.65    
   439.4656      0.0000000E+00
           1          22          58   440.3651       50525.90    
   439.3651      0.0000000E+00
           1          22          59   440.2138       50525.90    
   439.2138      0.0000000E+00
           1          22          60   440.0000       50530.78    
   439.0000      0.0000000E+00
 RCH:
 INRECH:
           1
 CONSTANT 2D REAL ARRAY:
                 RECHARGE
  3.2876711E-04
 CHD:
 ITMP:
          58
 LAYER,ROW,COL,START_FACTOR,END_FACTOR,CHDAUX:

           1          11           1   450.0000       450.0000    
  0.0000000E+00
           1          12           1   450.0000       450.0000    
  0.0000000E+00
           1          13           1   450.0000       450.0000    
  0.0000000E+00
           1          14           1   450.0000       450.0000    
  0.0000000E+00
           1          15           1   450.0000       450.0000    
  0.0000000E+00
           1          16           1   450.0000       450.0000    
  0.0000000E+00
           1          17           1   450.0000       450.0000    
  0.0000000E+00
           1          18           1   450.0000       450.0000    
  0.0000000E+00
           1          19           1   450.0000       450.0000    
  0.0000000E+00
           1          20           1   450.0000       450.0000    
  0.0000000E+00
           1          21           1   450.0000       450.0000    
  0.0000000E+00
           1          22           1   450.0000       450.0000    
  0.0000000E+00
           1          23           1   450.0000       450.0000    
  0.0000000E+00
           1          24           1   450.0000       450.0000    
  0.0000000E+00
           1          25           1   450.0000       450.0000    
  0.0000000E+00
           1          26           1   450.0000       450.0000    
  0.0000000E+00
           1          27           1   450.0000       450.0000    
  0.0000000E+00
           1          28           1   450.0000       450.0000    
  0.0000000E+00
           1          29           1   450.0000       450.0000    
  0.0000000E+00
           1          30           1   450.0000       450.0000    
  0.0000000E+00
           1          31           1   450.0000       450.0000    
  0.0000000E+00
           1          32           1   450.0000       450.0000    
  0.0000000E+00
           1          33           1   450.0000       450.0000    
  0.0000000E+00
           1          34           1   450.0000       450.0000    
  0.0000000E+00
           1          35           1   450.0000       450.0000    
  0.0000000E+00
           1          36           1   450.0000       450.0000    
  0.0000000E+00
           1          37           1   450.0000       450.0000    
  0.0000000E+00
           1          38           1   450.0000       450.0000    
  0.0000000E+00
           1          39           1   450.0000       450.0000    
  0.0000000E+00
           1          40           1   450.0000       450.0000    
  0.0000000E+00
           1          13          60   440.0000       440.0000    
  0.0000000E+00
           1          14          60   440.0000       440.0000    
  0.0000000E+00
           1          15          60   440.0000       440.0000    
  0.0000000E+00
           1          16          60   440.0000       440.0000    
  0.0000000E+00
           1          17          60   440.0000       440.0000    
  0.0000000E+00
           1          18          60   440.0000       440.0000    
  0.0000000E+00
           1          19          60   440.0000       440.0000    
  0.0000000E+00
           1          20          60   440.0000       440.0000    
  0.0000000E+00
           1          21          60   440.0000       440.0000    
  0.0000000E+00
           1          22          60   440.0000       440.0000    
  0.0000000E+00
           1          23          60   440.0000       440.0000    
  0.0000000E+00
           1          24          60   440.0000       440.0000    
  0.0000000E+00
           1          25          60   440.0000       440.0000    
  0.0000000E+00
           1          26          60   440.0000       440.0000    
  0.0000000E+00
           1          27          60   440.0000       440.0000    
  0.0000000E+00
           1          28          60   440.0000       440.0000    
  0.0000000E+00
           1          29          60   440.0000       440.0000    
  0.0000000E+00
           1          30          60   440.0000       440.0000    
  0.0000000E+00
           1          31          60   440.0000       440.0000    
  0.0000000E+00
           1          32          60   440.0000       440.0000    
  0.0000000E+00
           1          33          60   440.0000       440.0000    
  0.0000000E+00
           1          34          60   440.0000       440.0000    
  0.0000000E+00
           1          35          60   440.0000       440.0000    
  0.0000000E+00
           1          36          60   440.0000       440.0000    
  0.0000000E+00
           1          37          60   440.0000       440.0000    
  0.0000000E+00
           1          38          60   440.0000       440.0000    
  0.0000000E+00
           1          39          60   440.0000       440.0000    
  0.0000000E+00
           1          40          60   440.0000       440.0000    
  0.0000000E+00

 Run end date and time (yyyy/mm/dd hh:mm:ss): 2016/08/02 16:40:49
 Elapsed run time:  0.016 Seconds

